tests/data/state_estimation/current-sensor/power-from-local-current-sensor/sym_output.json
{
  "version": "1.0",
  "type": "sym_output",
  "is_batch": false,
  "attributes": {},
  "data": {
    "node": [
      {
        "id": 1,
        "energized": 1,
        "u_pu": 1.0,
        "u": 10000.0,
        "u_angle": -1.110223024625156e-16,
        "p": -152009.1268522991,
        "q": -114546.2174907462
      },
      {
        "id": 2,
        "energized": 1,
        "u_pu": 1.0065370416868618,
        "u": 10065.370416868618,
        "u_angle": 7.454758972982356e-05,
        "p": 152995.40010662266,
        "q": 83581.76798929037
      }
    ],
    "line": [
      {
        "id": 3,
        "energized": 1,
        "p_from": -152009.1268522991,
        "q_from": -114546.2174907462,
        "i_from": 10.989026433649713,
        "s_from": 190335.52108798738,
        "p_to": 152995.40010662266,
        "q_to": 83581.76798929037,
        "i_to": 9.999999984432357,
        "s_to": 174337.32931876957
      }
    ],
    "source": [
      {
        "id": 4,
        "energized": 1,
        "p": -152009.1268522991,
        "q": -114546.2174907462,
        "i": 10.98902643364971,
        "s": 190335.52108798738,
        "pf": -0.7986377213427706
      }
    ],
    "sym_load": [
      {
        "id": 5,
        "energized": 1,
        "p": -152995.40010662266,
        "q": -83581.76798929037,
        "i": 9.999999984432355,
        "s": 174337.32931876957,
        "pf": -0.8775825619473386
      }
    ],
    "sym_voltage_sensor": [
      {
        "id": 6,
        "energized": 1,
        "u_residual": 0,
        "u_angle_residual": 0
      }
    ],
    "sym_power_sensor": [
      {
        "id": 7,
        "energized": 1,
        "p_residual": 0.0002299653523163414,
        "q_residual": 0.00014923515201381576
      }
    ]
  }
}
